tools/iso_ne_250bus_case_related/raw_sources/tamu_ne_250bus/matpower/Summer90Tight.m
% Case saved by PowerWorld Simulator, version 19, build date July 14, 2016
function mpc = Summer90_2
mpc.version = '2';
mpc.baseMVA =  100.00;

%% bus data 
mpc.bus = [
      1 2      0.00     0.00      0.00     0.00    1 1.0200000    -0.27558  345.00   1   1.060   1.000    27.96     0.00 0  0
      2 1    125.80    41.26      0.00     0.00    1 1.0042357   -23.49261  345.00   1   1.040   0.950    27.94     0.34 0  0
      3 2      0.00     0.00      0.00     0.00    1 1.0200000    -6.41685  138.00   1   1.060   1.000    26.44     0.00 0  0
      4 1    116.47    32.98      0.00     0.00    1 0.9565743   -19.18501  138.00   1   1.040   0.950    31.68     0.06 0  0
      5 1    132.84    47.26      0.00     0.00    1 0.9760977   -13.78746  230.00   1   1.040   0.950    31.81     0.03 0  0
      6 1    120.02    38.74      0.00     0.00    1 0.9940815    -8.29029  138.00   1   1.040   0.950    32.12     0.04 0  0
      7 2    200.46    69.72      0.00     0.00    1 1.0200001    -7.17638  138.00   1   1.060   1.000    31.81     0.00 0  0
      8 2    165.69    48.17      0.00     0.00    1 1.0200000    -8.52608  230.00   1   1.060   1.000    31.79     0.00 0  0
      9 1      0.00     0.00      0.00     0.00    1 1.0246325    -9.80861  345.00   1   1.040   0.950    31.79     0.00 0  0
     10 3    123.49    40.53      0.00     0.00    1 1.0200000     0.00000  138.00   1   1.060   1.000    32.26     0.00 0  0
     11 1      0.00     0.00      0.00     0.00    1 1.0137593    -1.60191  138.00   1   1.040   0.950    32.27     0.01 0  0
     12 1      3.69     1.36      0.00     0.00    1 1.0120322    -2.70211  138.00   1   1.040   0.950    32.27     0.02 0  0
     13 1      0.00     0.00      0.00     0.00    1 1.0107330    -5.50208  345.00   1   1.040   0.950    32.27     0.05 0  0
     14 1    161.43    54.60      0.00     0.00    1 0.9996938   -14.84501  230.00   1   1.040   0.950    32.26     0.13 0  0
     15 1    196.23    57.03      0.00     0.00    1 0.9809463   -18.00288  230.00   1   1.040   0.950    32.16     0.14 0  0
     16 1    226.81    62.26      0.00     0.00    1 0.9848230   -26.26031  138.00   1   1.040   0.950    32.18     0.20 0  0
     17 1    120.86    32.63      0.00     0.00    1 0.9484674   -28.86030  138.00   1   1.040   0.950    31.32     0.27 0  0
     18 1    138.25    41.53      0.00     0.00    1 0.9350474   -23.42391  138.00   1   1.040   0.950    28.73     0.97 0  0
     19 1    143.29    36.68      0.00     0.00    1 0.9700300   -35.03746  138.00   1   1.040   0.950    33.27     0.21 0  0
     20 1    139.71    38.00      0.00     0.00    1 0.9910314   -33.64951   69.00   1   1.040   0.950    33.26     0.10 0  0
     21 1    199.21    51.94      0.00     0.00    1 0.9494530   -34.79646  138.00   1   1.040   0.950    33.37     0.44 0  0
     22 1    178.29    50.83      0.00     0.00    1 0.9723736   -21.43116  230.00   1   1.040   0.950    29.35    -0.16 0  0
     23 1    134.32    43.91      0.00     0.00    1 0.9872155   -17.59271  230.00   1   1.040   0.950    28.72     0.02 0  0
     24 2    163.83    56.35      0.00     0.00    1 1.0113165   -19.71100  230.00   1   1.060   1.000    32.10     0.12 0  0
     25 1     86.93    27.99      0.00     0.00    1 0.9884290   -30.87283  230.00   1   1.040   0.950    53.69    -1.68 0  0
     26 2    105.21    29.56      0.00     0.00    1 1.0200000   -34.58153  345.00   1   1.060   1.000    29.89     0.00 0  0
     27 1    132.77    42.44      0.00     0.00    1 0.9606768   -38.87075  230.00   1   1.040   0.950    30.99     0.10 0  0
     28 2    166.57    53.95      0.00     0.00    1 1.0200000   -19.15731  138.00   1   1.060   1.000    30.81     0.00 0  0
     29 1    102.46    33.02      0.00     0.00    1 1.0056183   -14.18213  138.00   1   1.040   0.950    30.80     0.00 0  0
     30 2      0.00     0.00      0.00     0.00    1 1.0200000   -21.87757   14.00   1   1.060   1.000    27.93     0.00 0  0
     31 2      0.00     0.00      0.00     0.00    1 1.0200000     1.07855   14.00   1   1.060   1.000    32.12     0.00 0  0
     32 2      0.00     0.00      0.00     0.00    1 1.0200000     7.54447   14.00   1   1.060   1.000    32.26     0.00 0  0
     33 2    185.97    45.87      0.00     0.00    1 1.0176612   -31.23014   14.00   1   1.060   1.000    33.24     0.19 0  0
     34 2    114.38    35.19      0.00     0.00    1 1.0200000   -31.08497   14.00   1   1.060   1.000    33.25     0.00 0  0
     35 2      0.00     0.00      0.00     0.00    1 1.0200000   -12.79190   14.00   1   1.060   1.000    29.37     0.00 0  0
     36 2      0.00     0.00      0.00     0.00    1 1.0200000    -8.52068   14.00   1   1.060   1.000    28.74     0.00 0  0
     37 2      0.00     0.00      0.00     0.00    1 1.0200000   -29.20866   14.00   1   1.060   1.000    53.75     0.00 0  0
     38 2      0.00     0.00      0.00     0.00    1 1.0200000    -8.54450   14.00   1   1.060   1.000    30.82     0.00 0  0
     39 1     99.53    31.43      0.00     0.00    1 1.0034654   -31.83387  345.00   1   1.040   0.950    29.02     0.26 0  0
     40 1    100.07    29.37      0.00     0.00    1 1.0043107   -36.29953  345.00   1   1.040   0.950    29.71     0.05 0  0
     41 1    130.19    39.28      0.00     0.00    1 0.9668829   -37.48791  345.00   1   1.040   0.950    30.96     0.08 0  0
     42 1    144.64    44.04      0.00     0.00    1 1.0124591   -34.72099  345.00   1   1.040   0.950    30.10    -0.02 0  0
     43 1    133.63    41.62      0.00     0.00    1 1.0121539   -35.02949  345.00   1   1.040   0.950    29.72     0.05 0  0
     44 1    114.55    38.19      0.00     0.00    1 1.0047220    -8.89033  230.00   1   1.040   0.950    31.77     0.02 0  0
     45 1    167.52    54.54      0.00     0.00    1 1.0105141    -6.85407  345.00   1   1.040   0.950    31.76     0.01 0  0
     46 1    150.20    45.90      0.00     0.00    1 0.9522694   -18.72898  138.00   1   1.040   0.950    31.81     0.04 0  0
     47 1    134.35    38.33      0.00    60.00    1 0.9347474   -26.21847  138.00   1   1.040   0.950    31.81     0.05 0  0
     48 1    162.42    46.33      0.00     0.00    1 0.9464658   -19.82115  345.00   1   1.040   0.950    31.63     0.04 0  0
     49 2    104.15    33.19      0.00     0.00    1 1.0200000    -6.63249  138.00   1   1.060   1.000    31.77     0.00 0  0
     50 1    157.97    45.09      0.00     0.00    1 0.9634471   -14.63394  138.00   1   1.040   0.950    31.74     0.01 0  0
     51 1    130.98    45.57      0.00     0.00    1 0.9820994   -19.13510  138.00   1   1.040   0.950    31.79     0.02 0  0
     52 2    169.47    55.05      0.00     0.00    1 1.0200000    -4.99256  345.00   1   1.060   1.000    31.76     0.00 0  0
     53 1    249.85    77.39      0.00     0.00    1 0.9638254   -19.18142  138.00   1   1.040   0.950    31.81     0.02 0  0
     54 2    110.80    39.77      0.00     0.00    1 1.0200000    -7.30436  230.00   1   1.060   1.000    31.79     0.00 0  0
     55 1    161.13    48.00      0.00     0.00    1 0.9969414   -10.80341  230.00   1   1.040   0.950    31.80     0.04 0  0
     56 2    182.63    53.88      0.00     0.00    1 1.0167632   -13.47726  345.00   1   1.060   1.000    32.16     0.10 0  0
     57 1     96.26    32.04      0.00    10.00    1 0.9411859   -23.51770  138.00   1   1.040   0.950    31.88     0.03 0  0
     58 1    205.60    63.93      0.00     0.00    1 0.9840162   -15.29156  345.00   1   1.040   0.950    32.25     0.13 0  0
     59 1    127.13    40.08      0.00     0.00    1 0.9958116   -17.96257  345.00   1   1.040   0.950    32.15     0.13 0  0
     60 1    145.29    46.01      0.00    50.00    1 0.9387491   -24.16571  138.00   1   1.040   0.950    31.93     0.03 0  0
     61 1    173.42    50.53      0.00     0.00    1 0.9840443   -20.80103  230.00   1   1.040   0.950    32.17     0.18 0  0
     62 1    161.96    55.92      0.00     0.00    1 0.9725700   -16.66799  345.00   1   1.040   0.950    32.26     0.13 0  0
     63 1    124.46    46.01      0.00    50.00    1 0.9388547   -24.47836  138.00   1   1.040   0.950    31.83     0.06 0  0
     64 1    263.14    80.55      0.00     0.00    1 0.9486704   -20.70120  138.00   1   1.040   0.950    32.08     0.04 0  0
     65 1    107.81    40.75      0.00     0.00    1 0.9828763   -11.74004  138.00   1   1.040   0.950    31.75     0.00 0  0
     66 1    124.57    45.10      0.00     0.00    1 0.9906029   -15.25955  345.00   1   1.040   0.950    32.29     0.16 0  0
     67 1    147.97    43.36      0.00     0.00    1 0.9535709   -19.49277  138.00   1   1.040   0.950    31.78     0.01 0  0
     68 1    177.42    59.44      0.00     0.00    1 0.9708058   -17.14112  138.00   1   1.040   0.950    31.79     0.01 0  0
     69 2     99.42    38.52      0.00     0.00    1 1.0200000    -5.36316  345.00   1   1.060   1.000    32.28     0.00 0  0
     70 1    140.19    47.02      0.00     0.00    1 0.9872578    -6.47693  138.00   1   1.040   0.950    32.20     0.00 0  0
     71 1    109.02    39.73      0.00     0.00    1 1.0013323   -14.62506  345.00   1   1.040   0.950    32.32     0.19 0  0
     72 2     96.34    35.88      0.00    70.00    1 0.9886874   -18.97331  138.00   1   1.060   1.000    31.80     0.02 0  0
     73 1    117.99    37.53      0.00     0.00    1 0.9838784   -19.28193  138.00   1   1.040   0.950    31.80     0.02 0  0
     74 1    129.00    39.37      0.00     0.00    1 0.9728507   -15.22821  345.00   1   1.040   0.950    31.66     0.04 0  0
     75 1    137.40    41.01      0.00     0.00    1 0.9485622   -20.23778  138.00   1   1.040   0.950    31.71     0.05 0  0
     76 2    187.26    48.40      0.00     0.00    1 1.0183114   -13.35501  345.00   1   1.060   1.000    32.34     0.21 0  0
     77 1    103.22    29.37      0.00     0.00    1 0.9873405   -26.45111  138.00   1   1.040   0.950    30.71     0.00 0  0
     78 2    126.85    37.77      0.00     0.00    1 1.0200000   -28.40146  345.00   1   1.060   1.000    30.42     0.00 0  0
     79 1    169.25    45.84      0.00     0.00    1 1.0256752   -30.97576  345.00   1   1.040   0.950    30.46    -0.01 0  0
     80 2    135.67    36.45      0.00     0.00    1 1.0200000   -16.17990  345.00   1   1.060   1.000    30.62     0.00 0  0
     81 1    146.16    34.76      0.00     0.00    1 1.0158457   -19.92250  345.00   1   1.040   0.950    30.63     0.00 0  0
     82 2    102.37    29.21      0.00     0.00    1 1.0200000   -20.23300  345.00   1   1.060   1.000    30.66     0.00 0  0
     83 1    107.45    30.99      0.00     0.00    1 1.0174297   -24.04198  345.00   1   1.040   0.950    30.67     0.00 0  0
     84 2     82.59    26.69      0.00     0.00    1 1.0200000   -23.33111  138.00   1   1.060   1.000    30.70     0.00 0  0
     85 1     91.31    26.44      0.00     0.00    1 0.9676462   -30.04869  230.00   1   1.040   0.950    30.90     0.09 0  0
     86 1    140.16    34.16      0.00     0.00    1 0.9669407   -28.09804  138.00   1   1.040   0.950    30.78     0.02 0  0
     87 1    158.51    40.36      0.00     0.00    1 1.0303416   -27.43527  345.00   1   1.040   0.950    30.54    -0.01 0  0
     88 1    126.53    42.35      0.00     0.00    1 1.0080872   -21.49659  138.00   1   1.040   0.950    30.81     0.01 0  0
     89 1     99.92    32.36      0.00    30.00    1 0.9618399   -32.43540  138.00   1   1.040   0.950    30.65    -0.00 0  0
     90 1    112.26    37.13      0.00     0.00    1 0.9715973   -18.81244  230.00   1   1.040   0.950    28.66    -0.00 0  0
     91 1    135.13    43.19      0.00     0.00    1 0.9437842   -21.81030  230.00   1   1.040   0.950    28.58    -0.04 0  0
     92 1    126.99    33.33      0.00     0.00    1 0.9496912   -27.52172  345.00   1   1.040   0.950    33.62     0.48 0  0
     93 1    142.85    42.79      0.00     0.00    1 0.9543034   -27.94084  345.00   1   1.040   0.950    33.45     0.41 0  0
     94 1    176.44    53.78      0.00     0.00    1 0.9745948   -30.96295  138.00   1   1.040   0.950    33.15     0.11 0  0
     95 1    160.26    46.98      0.00     0.00    1 0.9462093   -32.59363  138.00   1   1.040   0.950    33.18     0.25 0  0
     96 1    182.88    52.79      0.00     0.00    1 0.9464921   -32.55386  138.00   1   1.040   0.950    33.10     0.32 0  0
     97 1    180.61    36.42      0.00     0.00    1 0.9653710   -27.30099  345.00   1   1.040   0.950    32.89     0.32 0  0
     98 1    187.79    47.30      0.00     0.00    1 0.9925893   -25.08258  345.00   1   1.040   0.950    32.61     0.33 0  0
     99 1    179.50    49.22      0.00     0.00    1 0.9570286   -31.35432  345.00   1   1.040   0.950    33.24     0.28 0  0
    100 1    141.51    41.86      0.00     0.00    1 0.9560125   -25.36659  138.00   1   1.040   0.950    32.74     0.01 0  0
    101 1    133.50    39.26      0.00     0.00    1 0.9495817   -28.58617  345.00   1   1.040   0.950    33.47     0.41 0  0
    102 1     90.97    36.43      0.00     0.00    1 0.9546958   -33.93876  138.00   1   1.040   0.950    33.20     0.17 0  0
    103 2    207.40    59.16      0.00     0.00    1 1.0200000   -24.71209  138.00   1   1.060   1.000    33.15     0.00 0  0
    104 1    152.40    41.63      0.00     0.00    1 0.9340954   -38.21903  138.00   1   1.040   0.950    33.33     0.26 0  0
    105 1    115.79    34.36      0.00     0.00    1 0.9530895   -36.73846  138.00   1   1.040   0.950    33.29     0.23 0  0
    106 1    116.05    35.22      0.00     0.00    1 0.9407630   -38.56794  138.00   1   1.040   0.950    33.42     0.25 0  0
    107 1    134.31    42.18      0.00     0.00    1 0.9429202   -37.98544  138.00   1   1.040   0.950    33.30     0.29 0  0
    108 1    217.66    58.99      0.00     0.00    1 0.9372773   -37.90319  230.00   1   1.040   0.950    33.36     0.33 0  0
    109 1    164.00    49.89      0.00     0.00    1 0.9464634   -39.41853  138.00   1   1.040   0.950    33.60     0.12 0  0
    110 1     92.51    34.91      0.00     0.00    1 0.9562954   -36.28328  138.00   1   1.040   0.950    33.29     0.22 0  0
    111 1    158.77    50.71      0.00     0.00    1 0.9583785   -34.06811  345.00   1   1.040   0.950    33.23     0.27 0  0
    112 1    211.69    54.72      0.00    60.00    1 0.9397006   -41.04747  138.00   1   1.040   0.950    33.43     0.45 0  0
    113 1     90.53    30.85      0.00    60.00    1 0.9416192   -43.19809  138.00   1   1.040   0.950    33.47     0.44 0  0
    114 1     93.95    32.82      0.00     0.00    1 0.9457498   -35.18258  138.00   1   1.040   0.950    33.25     0.22 0  0
    115 1    105.15    34.11      0.00     0.00    1 0.9551010   -26.69685  345.00   1   1.040   0.950    33.60     0.47 0  0
    116 1    190.93    48.93      0.00     0.00    1 0.9880907   -35.28490  230.00   1   1.040   0.950    37.07    -0.59 0  0
    117 1    146.69    46.55      0.00     0.00    1 0.9667233   -34.48154  138.00   1   1.040   0.950    32.09     0.37 0  0
    118 1     92.64    29.95      0.00     0.00    1 0.9541717   -37.34890  138.00   1   1.040   0.950    33.33     0.26 0  0
    119 1    181.74    46.47      0.00     0.00    1 0.9459936   -37.96454  138.00   1   1.040   0.950    33.36     0.27 0  0
    120 2    115.60    39.21      0.00     0.00    1 1.0005366   -35.64925  230.00   1   1.060   1.000    34.52     0.10 0  0
    121 1    138.47    43.65      0.00     0.00    1 0.9923272   -36.44175  230.00   1   1.040   0.950    34.54     0.11 0  0
    122 1    115.49    38.04      0.00     0.00    1 0.9430736   -38.22956  138.00   1   1.040   0.950    32.69     0.41 0  0
    123 1    165.91    42.97      0.00     0.00    1 0.9960760   -33.72907  230.00   1   1.040   0.950    24.78    -0.67 0  0
    124 1    168.58    41.98      0.00    50.00    1 0.9361357   -38.31601  230.00   1   1.040   0.950    34.25     0.47 0  0
    125 1    175.60    52.68      0.00     0.00    1 0.9420809   -36.74401  138.00   1   1.040   0.950    33.28     0.55 0  0
    126 1    147.49    38.26      0.00     0.00    1 0.9512741   -38.67018  230.00   1   1.040   0.950    33.75     0.24 0  0
    127 1    169.22    45.75      0.00     0.00    1 0.9459132   -38.26952  230.00   1   1.040   0.950    33.52     0.43 0  0
    128 2    182.85    48.09      0.00     0.00    1 1.0200000   -23.46257  138.00   1   1.060   1.000    32.38     0.00 0  0
    129 1    140.82    41.19      0.00    40.00    1 0.9373267   -37.47189  138.00   1   1.040   0.950    33.38     0.49 0  0
    130 2    149.53    45.17      0.00     0.00    1 1.0084301   -27.95499  138.00   1   1.060   1.000    32.96     0.22 0  0
    131 1    201.82    55.81      0.00    50.00    1 0.9392273   -40.00052  138.00   1   1.040   0.950    33.39     0.51 0  0
    132 1    187.61    41.18      0.00     0.00    1 0.9484035   -33.04585  230.00   1   1.040   0.950    34.86     0.72 0  0
    133 1    123.60    39.27      0.00     0.00    1 0.9525016   -33.65257  230.00   1   1.040   0.950    42.34    -1.65 0  0
    134 1    144.83    41.36      0.00     0.00    1 0.9391071   -33.87808  230.00   1   1.040   0.950    34.45     0.65 0  0
    135 1    108.62    35.83      0.00     0.00    1 0.9764680   -29.37216  345.00   1   1.040   0.950    32.87     0.47 0  0
    136 1    132.70    41.73      0.00     0.00    1 0.9393423   -37.61637  138.00   1   1.040   0.950    33.31     0.24 0  0
    137 1    107.61    34.52      0.00     0.00    1 0.9892842   -27.62849  345.00   1   1.040   0.950    32.77     0.41 0  0
    138 1    178.71    48.12      0.00     0.00    1 0.9550255   -32.68500  345.00   1   1.040   0.950    33.25     0.28 0  0
    139 1    155.21    45.40      0.00     0.00    1 0.9900861   -25.49741  345.00   1   1.040   0.950    27.92     0.33 0  0
    140 1    201.87    51.28      0.00     0.00    1 0.9749366   -22.90181  138.00   1   1.040   0.950    32.73     0.01 0  0
    141 2    183.82    52.53      0.00     0.00    1 1.0200000   -19.01360  345.00   1   1.060   1.000    32.82     0.00 0  0
    142 1    124.43    43.35      0.00     0.00    1 0.9370610   -37.06389  230.00   1   1.040   0.950    34.49     0.53 0  0
    143 2    175.16    48.92      0.00     0.00    1 0.9921318   -21.62551  230.00   1   1.060   1.000    32.18     0.18 0  0
    144 1    206.21    59.82      0.00     0.00    1 0.9761919   -23.79757  230.00   1   1.040   0.950    32.19     0.18 0  0
    145 1    162.40    53.25      0.00     0.00    1 0.9631589   -28.99306  138.00   1   1.040   0.950    31.97     0.08 0  0
    146 2    173.39    52.08      0.00     0.00    1 0.9980081   -26.41864  345.00   1   1.060   1.000    32.73     0.39 0  0
    147 1    112.90    34.93      0.00     0.00    1 0.9462011   -38.85964  138.00   1   1.040   0.950    33.39     0.32 0  0
    148 1    128.82    37.99      0.00     0.00    1 0.9552500   -27.49950  345.00   1   1.040   0.950    33.49     0.42 0  0
    149 2    212.08    53.10      0.00     0.00    1 1.0173619   -26.74005  138.00   1   1.060   1.000    32.11     0.14 0  0
    150 1    154.41    46.03      0.00    20.00    1 0.9348046   -22.22162  345.00   1   1.040   0.950    31.63     0.04 0  0
    151 1    131.99    43.40      0.00     0.00    1 0.9920481   -27.28518  345.00   1   1.040   0.950    32.76     0.41 0  0
    152 1    108.39    30.52      0.00    60.00    1 0.9397687   -41.69965  138.00   1   1.040   0.950    33.44     0.43 0  0
    153 1    124.33    41.77      0.00     0.00    1 0.9707012   -30.15648  345.00   1   1.040   0.950    32.93     0.49 0  0
    154 1    151.55    47.79      0.00     0.00    1 0.9532674   -36.46985  230.00   1   1.040   0.950    31.10     0.10 0  0
    155 1    140.29    47.03      0.00    10.00    1 0.9380749   -38.31286  138.00   1   1.040   0.950    30.89     0.06 0  0
    156 1    144.07    47.61      0.00     0.00    1 0.9986503   -28.62404  345.00   1   1.040   0.950    30.80     0.08 0  0
    157 2    144.04    43.01      0.00     0.00    1 1.0200000   -29.70716  138.00   1   1.060   1.000    31.24     0.00 0  0
    158 1    143.21    37.61      0.00     0.00    1 0.9712526   -31.90911  138.00   1   1.040   0.950    31.38     0.20 0  0
    159 1    149.71    35.56      0.00     0.00    1 0.9820811   -34.77700  345.00   1   1.040   0.950    31.10     0.12 0  0
    160 1    180.10    63.08      0.00    40.00    1 0.9349245   -40.90217  230.00   1   1.040   0.950    31.02     0.09 0  0
    161 1     97.54    33.66      0.00     0.00    1 0.9673510   -31.97353  138.00   1   1.040   0.950    31.31     0.16 0  0
    162 2    137.52    43.61      0.00     0.00    1 1.0268748   -26.11959  345.00   1   1.060   1.000    30.90     0.16 0  0
    163 1    170.17    54.07      0.00     0.00    1 0.9899397   -32.62986  230.00   1   1.040   0.950    31.73     0.34 0  0
    164 1    131.06    48.79      0.00     0.00    1 0.9566774   -33.46775  138.00   1   1.040   0.950    31.76     0.37 0  0
    165 2    139.96    35.76      0.00     0.00    1 1.0403674   -24.27549  230.00   1   1.060   1.000    30.11    -0.07 0  0
    166 2    130.69    39.38      0.00     0.00    1 1.0209495   -25.34904  138.00   1   1.060   1.000    31.36     0.19 0  0
    167 1    131.22    35.02      0.00     0.00    1 1.0175386   -30.89424  345.00   1   1.040   0.950    30.36    -0.02 0  0
    168 1     88.08    32.34      0.00     0.00    1 0.9573126   -32.96831  230.00   1   1.040   0.950    54.31    -1.46 0  0
    169 1    134.58    39.60      0.00     0.00    1 0.9752074   -31.84063  138.00   1   1.040   0.950    30.88     0.06 0  0
    170 1    156.27    47.55      0.00    80.00    1 0.9412421   -24.89623  138.00   1   1.040   0.950    32.56     0.06 0  0
    171 1    135.87    49.52      0.00    10.00    1 0.9387380   -25.78366  138.00   1   1.040   0.950    32.64     0.03 0  0
    172 1    157.62    46.25      0.00     0.00    1 0.9529873   -14.98434  138.00   1   1.040   0.950    32.37     0.05 0  0
    173 1    139.61    47.99      0.00     0.00    1 0.9447815   -14.01443  138.00   1   1.040   0.950    32.34     0.05 0  0
    174 1    168.19    54.29      0.00     0.00    1 0.9907427   -18.51054  345.00   1   1.040   0.950    32.38     0.20 0  0
    175 2    135.71    39.16      0.00     0.00    1 1.0200000   -16.50303  138.00   1   1.060   1.000    32.48     0.00 0  0
    176 2    165.08    49.91      0.00     0.00    1 1.0168328   -25.67008  345.00   1   1.060   1.000    32.71     0.38 0  0
    177 1    233.62    77.72      0.00     0.00    1 0.9914980   -21.10692  230.00   1   1.040   0.950    32.23     0.16 0  0
    178 1    125.16    39.63      0.00     0.00    1 0.9577857   -26.29468  138.00   1   1.040   0.950    32.48     0.24 0  0
    179 1     11.68     3.37      0.00     0.00    1 0.9562579   -26.40731  138.00   1   1.040   0.950    32.49     0.24 0  0
    180 1     17.34     5.07      0.00     0.00    1 0.9904448   -18.59886  345.00   1   1.040   0.950    32.38     0.20 0  0
    181 1      0.00     0.00      0.00     0.00    1 1.0170671   -13.03592  345.00   1   1.040   0.950    29.70     0.12 0  0
    182 1      0.00     0.00      0.00     0.00    1 0.9743869   -15.25017  345.00   1   1.040   0.950    31.64     0.04 0  0
    183 1      0.00     0.00      0.00     0.00    1 0.9928209   -10.59234  345.00   1   1.040   0.950    31.72     0.02 0  0
    184 1      0.00     0.00      0.00     0.00    1 0.9919140   -11.10780  230.00   1   1.040   0.950    32.11     0.05 0  0
    185 1      0.00     0.00      0.00     0.00    1 0.9992618   -12.21590  345.00   1   1.040   0.950    32.19     0.08 0  0
    186 1      0.00     0.00      0.00     0.00    1 0.9961537   -11.55533  345.00   1   1.040   0.950    31.78     0.01 0  0
    187 1      0.00     0.00      0.00     0.00    1 1.0145017    -9.72610  345.00   1   1.040   0.950    31.79     0.00 0  0
    188 1      0.00     0.00      0.00     0.00    1 1.0121634    -4.80985  345.00   1   1.040   0.950    32.27     0.04 0  0
    189 1      0.00     0.00      0.00     0.00    1 1.0119050    -5.68078  345.00   1   1.040   0.950    32.28     0.04 0  0
    190 1      0.00     0.00      0.00     0.00    1 1.0036521   -12.34871  345.00   1   1.040   0.950    32.27     0.14 0  0
    191 1      0.00     0.00      0.00     0.00    1 1.0030961   -16.92503  345.00   1   1.040   0.950    32.14     0.12 0  0
    192 1      0.00     0.00      0.00     0.00    1 0.9826244   -24.04260  230.00   1   1.040   0.950    32.28     0.28 0  0
    193 1      0.00     0.00      0.00     0.00    1 0.9902208   -22.56940  345.00   1   1.040   0.950    32.06     0.15 0  0
    194 1      0.00     0.00      0.00     0.00    1 0.9837481   -24.97271  345.00   1   1.040   0.950    31.84     0.13 0  0
    195 1      0.00     0.00      0.00     0.00    1 0.9515761   -35.79867  230.00   1   1.040   0.950    33.33     0.32 0  0
    196 1      0.00     0.00      0.00     0.00    1 0.9579276   -33.34013  345.00   1   1.040   0.950    33.25     0.28 0  0
    197 1      0.00     0.00      0.00     0.00    1 0.9490828   -33.04552  230.00   1   1.040   0.950    33.59     0.56 0  0
    198 1      0.00     0.00      0.00     0.00    1 0.9566178   -32.01096  345.00   1   1.040   0.950    33.44     0.41 0  0
    199 1      0.00     0.00      0.00     0.00    1 0.9624365   -25.65044  345.00   1   1.040   0.950    33.57     0.46 0  0
    200 1      0.00     0.00      0.00     0.00    1 0.9912643   -21.79755  345.00   1   1.040   0.950    32.46     0.22 0  0
...
];

%% generator data 
mpc.gen = [
      1    338.00    -37.92    103.00   -103.00  1.0200    100.00 1    338.00      3.00     81.31   9999.90   -500.00   1500.00   -500.00   1500.00 0 0 0 0   0.0000 0 0 0 0
      3    577.40     96.35    392.00   -209.00  1.0200    100.00 1    686.00    298.00      0.00      0.00      0.00      0.00      0.00      0.00 0 0 0 0   0.0000 0 0 0 0
      7    674.00    228.83    385.00   -205.00  1.0200    100.00 1    674.00    139.00      0.00      0.00      0.00      0.00      0.00      0.00 0 0 0 0   0.0000 0 0 0 0
      8    189.00    236.29    349.00   -186.00  1.0200    100.00 1    611.00    189.00      0.00      0.00      0.00      0.00      0.00      0.00 0 0 0 0   0.0000 0 0 0 0
     10   2267.07    459.88   1298.00   -692.00  1.0200    100.00 1   2271.00   1406.00      0.00      0.00      0.00      0.00      0.00      0.00 0 0 0 0   0.0000 0 0 0 0
     24    541.00    309.00    309.00   -165.00  1.0200    100.00 1    541.00    288.00      0.00      0.00      0.00      0.00      0.00      0.00 0 0 0 0   0.0000 0 0 0 0
     26    255.00    112.44    171.00    -91.00  1.0200    100.00 1    300.00    120.00      0.00      0.00      0.00      0.00      0.00      0.00 0 0 0 0   0.0000 0 0 0 0
     28    592.00    118.70    338.00   -180.00  1.0200    100.00 1    592.00    216.00      0.00      0.00      0.00      0.00      0.00      0.00 0 0 0 0   0.0000 0 0 0 0
     30    159.50     91.08    150.00    -80.00  1.0200    100.00 1    263.00    125.00      0.00      0.00      0.00      0.00      0.00      0.00 0 0 0 0   0.0000 0 0 0 0
     31    660.25    159.85    457.00   -244.00  1.0200    100.00 1    800.00    241.00      0.00      0.00      0.00      0.00      0.00      0.00 0 0 0 0   0.0000 0 0 0 0
     32    683.00     45.03    390.00   -208.00  1.0200    100.00 1    683.00    163.00      0.00      0.00      0.00      0.00      0.00      0.00 0 0 0 0   0.0000 0 0 0 0
     33    664.00    379.00    379.00   -202.00  1.0200    100.00 1    664.00    379.00      0.00      0.00      0.00      0.00      0.00      0.00 0 0 0 0   0.0000 0 0 0 0
     34    373.50    192.01    707.00   -377.00  1.0200    100.00 1   1237.00    295.00      0.00      0.00      0.00      0.00      0.00      0.00 0 0 0 0   0.0000 0 0 0 0
     35   1041.85    418.40    792.00   -422.00  1.0200    100.00 1   1386.00    924.00      0.00      0.00      0.00      0.00      0.00      0.00 0 0 0 0   0.0000 0 0 0 0
     36    586.64    158.47    336.00   -179.00  1.0200    100.00 1    588.00    140.00      0.00      0.00      0.00      0.00      0.00      0.00 0 0 0 0   0.0000 0 0 0 0
     37    129.75    137.28    324.00   -173.00  1.0200    100.00 1    567.00    100.00      0.00      0.00      0.00      0.00      0.00      0.00 0 0 0 0   0.0000 0 0 0 0
     38    650.67     92.47    498.00   -266.00  1.0200    100.00 1    872.00    208.00      0.00      0.00      0.00      0.00      0.00      0.00 0 0 0 0   0.0000 0 0 0 0
     49    607.00    207.05    347.00   -185.00  1.0200    100.00 1    607.00    320.00      0.00      0.00      0.00      0.00      0.00      0.00 0 0 0 0   0.0000 0 0 0 0
     52   1475.62    305.70    938.00   -500.00  1.0200    100.00 1   1642.00    162.00      0.00      0.00      0.00      0.00      0.00      0.00 0 0 0 0   0.0000 0 0 0 0
     54    546.00     15.82    312.00   -166.00  1.0200    100.00 1    546.00    208.00      0.00      0.00      0.00      0.00      0.00      0.00 0 0 0 0   0.0000 0 0 0 0
     56    728.00    416.00    416.00   -222.00  1.0200    100.00 1    728.00    416.00      0.00      0.00      0.00      0.00      0.00      0.00 0 0 0 0   0.0000 0 0 0 0
     69    520.00    253.79    297.00   -158.00  1.0200    100.00 1    520.00    149.00      0.00      0.00      0.00      0.00      0.00      0.00 0 0 0 0   0.0000 0 0 0 0
     72    263.00    150.00    150.00    -80.00  1.0200    100.00 1    263.00     85.00      0.00      0.00      0.00      0.00      0.00      0.00 0 0 0 0   0.0000 0 0 0 0
     76    882.00    504.00    504.00   -269.00  1.0200    100.00 1    882.00    435.00      0.00      0.00      0.00      0.00      0.00      0.00 0 0 0 0   0.0000 0 0 0 0
     78    288.00    -44.91    165.00    -88.00  1.0200    100.00 1    288.00    130.00      0.00      0.00      0.00      0.00      0.00      0.00 0 0 0 0   0.0000 0 0 0 0
     80    578.00    -50.81    330.00   -176.00  1.0200    100.00 1    578.00    113.00      0.00      0.00      0.00      0.00      0.00      0.00 0 0 0 0   0.0000 0 0 0 0
     82    221.67    -19.79    179.00    -95.00  1.0200    100.00 1    313.00    176.00      0.00      0.00      0.00      0.00      0.00      0.00 0 0 0 0   0.0000 0 0 0 0
     84    169.00    118.22    508.00   -271.00  1.0200    100.00 1    888.00    169.00      0.00      0.00      0.00      0.00      0.00      0.00 0 0 0 0   0.0000 0 0 0 0
    103    916.00    398.07    523.00   -279.00  1.0200    100.00 1    916.00    208.00      0.00      0.00      0.00      0.00      0.00      0.00 0 0 0 0   0.0000 0 0 0 0
    120    281.90    483.00    483.00   -258.00  1.0200    100.00 1    845.00    161.00      0.00      0.00      0.00      0.00      0.00      0.00 0 0 0 0   0.0000 0 0 0 0
    128    378.00     69.73    216.00   -115.00  1.0200    100.00 1    378.00    180.00      0.00      0.00      0.00      0.00      0.00      0.00 0 0 0 0   0.0000 0 0 0 0
    130    267.00    153.00    153.00    -81.00  1.0200    100.00 1    267.00    115.00      0.00      0.00      0.00      0.00      0.00      0.00 0 0 0 0   0.0000 0 0 0 0
    141    944.83    541.49    967.00   -515.00  1.0200    100.00 1   1691.00    877.00      0.00      0.00      0.00      0.00      0.00      0.00 0 0 0 0   0.0000 0 0 0 0
    143    303.00    173.00    173.00    -92.00  1.0200    100.00 1    303.00    155.00      0.00      0.00      0.00      0.00      0.00      0.00 0 0 0 0   0.0000 0 0 0 0
    146    607.00    347.00    347.00   -185.00  1.0200    100.00 1    607.00    300.00      0.00      0.00      0.00      0.00      0.00      0.00 0 0 0 0   0.0000 0 0 0 0
    149    274.00    157.00    157.00    -83.00  1.0200    100.00 1    274.00    186.00      0.00      0.00      0.00      0.00      0.00      0.00 0 0 0 0   0.0000 0 0 0 0
    157    288.00    189.37    298.00   -159.00  1.0200    100.00 1    521.00    288.00      0.00      0.00      0.00      0.00      0.00      0.00 0 0 0 0   0.0000 0 0 0 0
    162    636.00    176.00    363.00   -194.00  1.0269    100.00 1    636.00    230.00      0.00      0.00      0.00      0.00      0.00      0.00 0 0 0 0   0.0000 0 0 0 0
    165   1173.50    402.00    745.00   -397.00  1.0404    100.00 1   1304.00    782.00      0.00      0.00      0.00      0.00      0.00      0.00 0 0 0 0   0.0000 0 0 0 0
    166    830.00    202.00    474.00   -253.00  1.0209    100.00 1    830.00    277.00      0.00      0.00      0.00      0.00      0.00      0.00 0 0 0 0   0.0000 0 0 0 0
    175    626.00    161.64    358.00   -191.00  1.0200    100.00 1    626.00    209.00      0.00      0.00      0.00      0.00      0.00      0.00 0 0 0 0   0.0000 0 0 0 0
    176    267.00    153.00    153.00    -81.00  1.0200    100.00 1    267.00     86.00      0.00      0.00      0.00      0.00      0.00      0.00 0 0 0 0   0.0000 0 0 0 0
];

%% generator cost data
mpc.gencost = [
2 0 0 4   0.0000    0.001   17.500   450.00
2 0 0 4   0.0000    0.001   24.757  1505.67
2 0 0 4   0.0000    0.002   24.400  3342.77
2 0 0 4   0.0000    0.005   30.562  1114.42
2 0 0 4   0.0000    0.001   25.697  6313.07
2 0 0 4   0.0000    0.002   27.100  1297.89
2 0 0 4   0.0000    0.005   27.249   783.88
2 0 0 4   0.0000    0.002   26.174  1372.76
2 0 0 4   0.0000    0.006   26.053   655.13
2 0 0 4   0.0000    0.002   29.298  3418.85
2 0 0 4   0.0000    0.002   29.135  1458.22
2 0 0 4   0.0000    0.001   23.899  4734.80
2 0 0 4   0.0000    0.004   29.960  3677.05
2 0 0 4   0.0000    0.001   26.605  6691.85
2 0 0 4   0.0000    0.002   26.400  3342.77
2 0 0 4   0.0000    0.004   52.785  7415.02
2 0 0 4   0.0000    0.003   27.114  3844.19
2 0 0 4   0.0000    0.002   25.878  1390.96
2 0 0 4   0.0000    0.003   21.871  2841.36
2 0 0 4   0.0000    0.002   26.558  1284.25
2 0 0 4   0.0000    0.001   24.540  1581.44
2 0 0 4   0.0000    0.002   25.780  3523.95
2 0 0 4   0.0000    0.003   22.330  2325.41
2 0 0 4   0.0000    0.001   25.323  1978.07
2 0 0 4   0.0000    0.005   26.473   732.25
2 0 0 4   0.0000    0.002   26.356  1347.98
2 0 0 4   0.0000    0.008   27.364   550.89
2 0 0 4   0.0000    0.004   31.864  3610.20
2 0 0 4   0.0000    0.001   25.117  2036.75
2 0 0 4   0.0000    0.004   32.314  3777.33
2 0 0 4   0.0000    0.004   26.167   947.57
2 0 0 4   0.0000    0.006   27.791   710.04
2 0 0 4   0.0000    0.003   27.697  4313.07
2 0 0 4   0.0000    0.005   26.616   773.70
2 0 0 4   0.0000    0.002   26.010  1398.04
2 0 0 4   0.0000    0.006   27.475   721.30
2 0 0 4   0.0000    0.006   32.756  1215.71
2 0 0 4   0.0000    0.002   25.916  1460.47
2 0 0 4   0.0000    0.001   26.918  6534.03
2 0 0 4   0.0000    0.001   25.325  1860.51
2 0 0 4   0.0000    0.002   25.962  1438.95
2 0 0 4   0.0000    0.006   27.924   713.43
];

%% branch data
mpc.branch = [
      1       2  0.005978  0.120624   1.98515    414.51    414.51    414.51 1.00000    0.000 1    0.00    0.00    338.00    -37.92   -331.19    -28.04 0 0 0 0
      2      30  0.000000  0.018100   0.00000   1000.00   1000.00   1000.00 1.00000    0.000 1    0.00    0.00   -159.50    -85.22    159.50     91.08 0 0 0 0
      2      39  0.008680  0.060198   0.52937    530.03    530.03    530.03 1.00000    0.000 1    0.00    0.00    240.58    -42.39   -235.58     23.74 0 0 0 0
      2     139  0.003390  0.023178   0.20974    530.03    530.03    530.03 1.00000    0.000 1    0.00    0.00    156.08     30.53   -155.21    -45.40 0 0 0 0
      2     181  0.007607  0.052755   0.46393    530.03    530.03    530.03 1.00000    0.000 1    0.00    0.00   -343.13     33.81    352.26    -17.90 0 0 0 0
      2     201  0.002742  0.018748   0.16965    530.03    530.03    530.03 1.00000    0.000 1    0.00    0.00    311.35     50.05   -308.62    -48.20 0 0 0 0
      3      18  0.003829  0.158129   0.09685    316.20    316.20    316.20 1.00000    0.000 1    0.00    0.00    178.27     71.82   -176.89    -23.81 0 0 0 0
      3     181  0.000638  0.030000   0.00000    400.00    400.00    400.00 1.00000    0.000 1    0.00    0.00    399.12     24.53   -398.14     21.58 0 0 0 0
      4      75  0.016845  0.038117   0.00951    107.32    107.32    107.32 1.00000    0.000 1    0.00    0.00     44.17      0.55    -43.81     -0.60 0 0 0 0
      4     182  0.000889  0.040000   0.00000    300.00    300.00    300.00 1.00000    0.000 1    0.00    0.00   -160.65    -33.53    160.91     45.31 0 0 0 0
      5       8  0.002959  0.039331   0.08406    578.83    578.83    578.83 1.00000    0.000 1    0.00    0.00   -238.18    -84.37    240.14    102.08 0 0 0 0
      5     183  0.001261  0.046667   0.00000    150.00    150.00    150.00 1.00000    0.000 1    0.00    0.00   -116.52    -28.60    116.71     35.65 0 0 0 0
      5     184  0.045023  0.111012   0.17939    178.87    178.87    178.87 1.00000    0.000 1    0.00    0.00    -39.53     -5.47     40.27    -10.07 0 0 0 0
      5     207  0.001124  0.013276   0.03027    541.39    541.39    541.39 1.00000    0.000 1    0.00    0.00    261.38     71.19   -260.51    -63.78 0 0 0 0
      6       7  0.062002  0.145750   0.03365    107.32    107.32    107.32 1.00000    0.000 1    0.00    0.00    -17.77    -11.65     18.03      8.85 0 0 0 0
      6      31  0.000000  0.025000   0.00000   1100.00   1100.00   1100.00 1.00000    0.000 1    0.00    0.00   -660.25    -48.96    660.25    159.85 0 0 0 0
      6      70  0.033638  0.077688   0.01859    107.32    107.32    107.32 1.00000    0.000 1    0.00    0.00    -30.25     21.54     30.73    -22.25 0 0 0 0
      6     184  0.000297  0.014545   0.00000    550.00    550.00    550.00 1.00000    0.000 1    0.00    0.00    333.56     16.20   -333.22      0.21 0 0 0 0
      6     185  0.000556  0.026667   0.00000    450.00    450.00    450.00 1.00000    0.000 1    0.00    0.00    254.69    -15.88   -254.32     33.45 0 0 0 0
      7     186  0.000336  0.017143   0.00000    700.00    700.00    700.00 1.00000    0.000 1    0.00    0.00    455.50    150.26   -454.75   -112.35 0 0 0 0
      8      54  0.000326  0.005080   0.01216    665.28    665.28    665.28 1.00000    0.000 1    0.00    0.00   -434.60     31.95    435.20    -23.94 0 0 0 0
      8     187  0.000196  0.010000   0.00000    700.00    700.00    700.00 1.00000    0.000 1    0.00    0.00    217.77     54.08   -217.68    -49.24 0 0 0 0
    187       9  0.006838  0.047422   0.41703    530.03    530.03    530.03 1.00000    0.000 1    0.00    0.00      0.03    -43.14      0.00     -0.00 0 0 0 0
     10      11  0.000315  0.008557   0.00495    566.01    566.01    566.01 1.00000    0.000 1    0.00    0.00    340.27     66.31   -339.90    -56.94 0 0 0 0
     10      32  0.000000  0.020000   0.00000   1000.00   1000.00   1000.00 1.00000    0.000 1    0.00    0.00   -683.00     45.04    683.00     45.03 0 0 0 0
     10      70  0.005799  0.067267   0.02063    324.83    324.83    324.83 1.00000    0.000 1    0.00    0.00    172.69     43.24   -170.92    -24.77 0 0 0 0
     10     188  0.000073  0.003750   0.00000   3200.00   3200.00   3200.00 1.00000    0.000 1    0.00    0.00   2313.63    264.76  -2309.79    -69.29 0 0 0 0
     12      11  0.001279  0.043500   0.00000    100.00    100.00    100.00 1.00000    0.000 1    0.00    0.00    -45.35     -2.25     45.38      3.13 0 0 0 0
     11     173  0.016673  0.124076   0.03486    237.35    237.35    237.35 1.00000    0.000 1    0.00    0.00    172.80     49.39   -167.53    -13.52 0 0 0 0
     11     189  0.001500  0.060000   0.00000    200.00    200.00    200.00 1.00000    0.000 1    0.00    0.00    121.72      4.42   -121.51      4.24 0 0 0 0
     12      13  0.003529  0.120000   0.00000    100.00    100.00    100.00 1.00000    0.000 1    0.00    0.00     41.67      0.89    -41.61      1.15 0 0 0 0
    188      13  0.000109  0.001949   0.02003   1045.73   1045.73   1045.73 1.00000    0.000 1    0.00    0.00    636.41     41.51   -635.98    -35.82 0 0 0 0
     13     190  0.000846  0.017908   0.26779   1060.07   1060.07   1060.07 1.00000    0.000 1    0.00    0.00    677.59     34.67   -673.76     19.05 0 0 0 0
     14      15  0.036111  0.089040   0.14388    178.87    178.87    178.87 1.00000    0.000 1    0.00    0.00     60.01     -8.81    -58.71     -2.09 0 0 0 0
     14     177  0.018818  0.067761   0.11459    229.46    229.46    229.46 1.00000    0.000 1    0.00    0.00    153.49    -27.53   -148.97     32.47 0 0 0 0
     14     190  0.000233  0.011667   0.00000    600.00    600.00    600.00 1.00000    0.000 1    0.00    0.00   -374.94    -18.26    375.27     34.71 0 0 0 0
     15      61  0.004135  0.027504   0.05200    353.36    353.36    353.36 1.00000    0.000 1    0.00    0.00    166.53    -34.40   -165.30     37.60 0 0 0 0
    184      15  0.003431  0.042042   0.08894    541.39    541.39    541.39 1.00000    0.000 1    0.00    0.00    279.47     15.43   -276.73      9.45 0 0 0 0
     15     191  0.002059  0.070000   0.00000    100.00    100.00    100.00 1.00000    0.000 1    0.00    0.00    -27.32    -29.99     27.36     31.18 0 0 0 0
     16     149  0.014227  0.046950   0.01231    137.68    137.68    137.68 1.00000    0.000 1    0.00    0.00     -2.56    -68.00      3.22     68.97 0 0 0 0
     16     192  0.001000  0.040000   0.00000    200.00    200.00    200.00 1.00000    0.000 1    0.00    0.00    -93.38      9.56     93.47     -5.93 0 0 0 0
     16     193  0.001116  0.048000   0.00000    250.00    250.00    250.00 1.00000    0.000 1    0.00    0.00   -130.87     -3.82    131.07     12.30 0 0 0 0
     17      18  0.056699  0.194499   0.04709    137.68    137.68    137.68 1.00000    0.000 1    0.00    0.00    -37.51     17.41     38.63    -17.72 0 0 0 0
     17     145  0.046728  0.104525   0.02669    107.32    107.32    107.32 1.00000    0.000 1    0.00    0.00     -3.28    -13.06      3.36     10.80 0 0 0 0
     17     194  0.002162  0.080000   0.00000    150.00    150.00    150.00 1.00000    0.000 1    0.00    0.00    -80.07    -36.98     80.26     43.90 0 0 0 0
     19      20  0.000426  0.020000   0.00000    400.00    400.00    400.00 1.00000    0.000 1    0.00    0.00   -118.51    -97.93    118.62    102.95 0 0 0 0
     19      33  0.000700  0.014200   0.00000   1000.00   1000.00   1000.00 1.00000    0.000 1    0.00    0.00   -475.74   -286.58    478.03    333.13 0 0 0 0
     19      96  0.055097  0.129519   0.02990    107.32    107.32    107.32 1.00000    0.000 1    0.00    0.00    -19.42     25.15     20.05    -26.41 0 0 0 0
     19     105  0.000528  0.012761   0.00724    522.03    522.03    522.03 1.00000    0.000 1    0.00    0.00    220.14    122.51   -219.78   -114.56 0 0 0 0
     19     110  0.005086  0.023707   0.00609    173.53    173.53    173.53 1.00000    0.000 1    0.00    0.00     93.05     36.87    -92.51    -34.91 0 0 0 0
     19     118  0.000642  0.013449   0.00755    474.70    474.70    474.70 1.00000    0.000 1    0.00    0.00    282.65    106.14   -282.03    -93.80 0 0 0 0
     19     175  0.056202  0.251624   0.07017    173.53    173.53    173.53 1.00000    0.000 1    0.00    0.00   -118.81     24.37    127.70      8.48 0 0 0 0
     19     195  0.002353  0.080000   0.00000    100.00    100.00    100.00 1.00000    0.000 1    0.00    0.00     15.98     22.01    -15.96    -21.38 0 0 0 0
     19     196  0.003529  0.120000   0.00000    100.00    100.00    100.00 1.00000    0.000 1    0.00    0.00    -22.62     10.79     22.64     -9.99 0 0 0 0
     20      34  0.000900  0.018000   0.00000    600.00    600.00    600.00 1.00000    0.000 1    0.00    0.00   -258.33   -140.95    259.12    156.82 0 0 0 0
     21     129  0.006980  0.035005   0.01005    187.39    187.39    187.39 1.00000    0.000 1    0.00    0.00    120.97     11.09   -119.83     -6.25 0 0 0 0
     21     130  0.007383  0.060698   0.01884    261.01    261.01    261.01 1.00000    0.000 1    0.00    0.00   -194.88    -58.17    198.26     84.14 0 0 0 0
     21     197  0.001441  0.053333   0.00000    150.00    150.00    150.00 1.00000    0.000 1    0.00    0.00    -51.55      2.84     51.59     -1.26 0 0 0 0
     21     198  0.001500  0.060000   0.00000    200.00    200.00    200.00 1.00000    0.000 1    0.00    0.00    -73.76     -7.71     73.85     11.37 0 0 0 0
     22      23  0.013985  0.034482   0.05572    178.87    178.87    178.87 1.00000    0.000 1    0.00    0.00   -172.44     31.69    177.01    -25.77 0 0 0 0
     22      35  0.000000  0.014300   0.00000   1950.00   1950.00   1950.00 1.00000    0.000 1    0.00    0.00  -1041.85   -245.15   1041.85    418.40 0 0 0 0
     22     199  0.000131  0.006667   0.00000   1050.00   1050.00   1050.00 1.00000    0.000 1    0.00    0.00   1036.00    162.63  -1034.48    -85.09 0 0 0 0
     23      24  0.043009  0.106048   0.17137    178.87    178.87    178.87 1.00000    0.000 1    0.00    0.00     22.29    -39.18    -21.65     23.65 0 0 0 0
     23      36  0.000500  0.027200   0.00000   1000.00   1000.00   1000.00 1.00000    0.000 1    0.00    0.00   -584.86    -61.93    586.64    158.47 0 0 0 0
     23      90  0.006901  0.020365   0.03648    206.75    206.75    206.75 1.00000    0.000 1    0.00    0.00    113.27     36.62   -112.26    -37.13 0 0 0 0
     23      91  0.012793  0.054395   0.09557    262.53    262.53    262.53 1.00000    0.000 1    0.00    0.00    137.97     46.36   -135.13    -43.19 0 0 0 0
     24     177  0.002078  0.014281   0.02528    353.36    353.36    353.36 1.00000    0.000 1    0.00    0.00    187.80    113.81   -186.82   -109.57 0 0 0 0
     24     200  0.000372  0.017500   0.00000    400.00    400.00    400.00 1.00000    0.000 1    0.00    0.00    211.02    115.19   -210.81   -105.30 0 0 0 0
     25      37  0.000600  0.023200   0.00000   1000.00   1000.00   1000.00 1.00000    0.000 1    0.00    0.00   -129.55   -129.32    129.75    137.28 0 0 0 0
     25     133  0.006133  0.048676   0.09258    395.58    395.58    395.58 1.00000    0.000 1    0.00    0.00    101.67     57.90   -100.77    -59.53 0 0 0 0
     25     168  0.018164  0.045274   0.07160    178.87    178.87    178.87 1.00000    0.000 1    0.00    0.00     89.78     29.81    -88.08    -32.34 0 0 0 0
     25     201  0.001261  0.046667   0.00000    150.00    150.00    150.00 1.00000    0.000 1    0.00    0.00   -148.83     13.62    149.12     -2.95 0 0 0 0
     26      42  0.007136  0.049490   0.43522    530.03    530.03    530.03 1.00000    0.000 1    0.00    0.00      7.17     -8.13     -7.15    -36.70 0 0 0 0
     26      43  0.001333  0.009112   0.08245    530.03    530.03    530.03 1.00000    0.000 1    0.00    0.00     99.36     69.36    -99.16    -76.53 0 0 0 0
     26     202  0.010447  0.072454   0.63716    530.03    530.03    530.03 1.00000    0.000 1    0.00    0.00     43.26     21.64    -42.77    -81.80 0 0 0 0
     27     160  0.022175  0.054676   0.08835    178.87    178.87    178.87 1.00000    0.000 1    0.00    0.00     66.12     15.39    -64.98    -20.51 0 0 0 0
     27     202  0.000519  0.023333   0.00000    300.00    300.00    300.00 1.00000    0.000 1    0.00    0.00   -198.90    -57.82    199.14     68.67 0 0 0 0
     28      77  0.066564  0.156472   0.03612    107.32    107.32    107.32 1.00000    0.000 1    0.00    0.00     78.74     -8.88    -74.74     14.63 0 0 0 0
     28      88  0.001156  0.018601   0.00608    418.29    418.29    418.29 1.00000    0.000 1    0.00    0.00    229.09     55.38   -228.47    -46.06 0 0 0 0
     28     203  0.005926  0.160000   0.00000     50.00     50.00     50.00 1.00000    0.000 1    0.00    0.00     36.21     12.54    -36.13    -10.28 0 0 0 0
     28     204  0.003529  0.120000   0.00000    100.00    100.00    100.00 1.00000    0.000 1    0.00    0.00     81.39      5.71    -81.16      1.97 0 0 0 0
     29      38  0.000800  0.015600   0.00000   1200.00   1200.00   1200.00 1.00000    0.000 1    0.00    0.00   -647.35    -27.71    650.67     92.47 0 0 0 0
     29      84  0.009549  0.091679   0.02681    283.00    283.00    283.00 1.00000    0.000 1    0.00    0.00    175.83    -21.21   -172.87     46.85 0 0 0 0
     29     205  0.000209  0.010667   0.00000    750.00    750.00    750.00 1.00000    0.000 1    0.00    0.00    369.06     15.90   -368.78     -1.50 0 0 0 0
     39      43  0.005771  0.040026   0.35199    530.03    530.03    530.03 1.00000    0.000 1    0.00    0.00    136.05    -55.18   -134.91     27.34 0 0 0 0
     40      43  0.003602  0.023140   0.23770    530.03    530.03    530.03 1.00000    0.000 1    0.00    0.00   -100.07    -29.37    100.44      7.58 0 0 0 0
    202      41  0.002711  0.018804   0.16536    530.03    530.03    530.03 1.00000    0.000 1    0.00    0.00    130.71     27.26   -130.19    -39.28 0 0 0 0
     42     167  0.006872  0.049342   0.40438    530.03    530.03    530.03 1.00000    0.000 1    0.00    0.00   -137.48     -7.35    138.76    -25.13 0 0 0 0
     44      55  0.007424  0.027027   0.04470    229.46    229.46    229.46 1.00000    0.000 1    0.00    0.00    122.96     -5.04   -121.84      4.61 0 0 0 0
     44     206  0.000372  0.017500   0.00000    400.00    400.00    400.00 1.00000    0.000 1    0.00    0.00   -237.51    -33.15    237.72     43.12 0 0 0 0
     45      52  0.000887  0.008362   0.07659    652.53    652.53    652.53 1.00000    0.000 1    0.00    0.00   -407.27    -68.86    408.74     74.89 0 0 0 0
    206      45  0.000420  0.002856   0.02611    530.03    530.03    530.03 1.00000    0.000 1    0.00    0.00    191.73     31.29   -191.58    -32.91 0 0 0 0
     45     212  0.001035  0.009761   0.08940    652.53    652.53    652.53 1.00000    0.000 1    0.00    0.00    431.33     47.23   -429.42    -38.24 0 0 0 0
     46      47  0.016826  0.106284   0.02894    212.01    212.01    212.01 1.00000    0.000 1    0.00    0.00    110.02      4.11   -107.77      7.53 0 0 0 0
     46     207  0.000370  0.017778   0.00000    450.00    450.00    450.00 1.00000    0.000 1    0.00    0.00   -260.22    -50.02    260.51     63.78 0 0 0 0
     47      63  0.038101  0.089565   0.02068    107.32    107.32    107.32 1.00000    0.000 1    0.00    0.00    -26.58      6.57     26.91     -7.60 0 0 0 0
     48     150  0.003523  0.024436   0.21489    530.03    530.03    530.03 1.00000    0.000 1    0.00    0.00    155.39     16.31   -154.41    -28.56 0 0 0 0
    182      48  0.003417  0.023699   0.20841    530.03    530.03    530.03 1.00000    0.000 1    0.00    0.00    321.77     70.89   -317.81    -62.64 0 0 0 0
     49      65  0.001800  0.037712   0.02118    474.70    474.70    474.70 1.00000    0.000 1    0.00    0.00    241.41     98.34   -240.23    -75.76 0 0 0 0
     49     208  0.001000  0.040000   0.00000    200.00    200.00    200.00 1.00000    0.000 1    0.00    0.00    134.00     32.26   -133.82    -24.96 0 0 0 0
     49     209  0.001500  0.060000   0.00000    200.00    200.00    200.00 1.00000    0.000 1    0.00    0.00    127.43     43.26   -127.17    -32.81 0 0 0 0
     50      65  0.005258  0.037515   0.01148    237.35    237.35    237.35 1.00000    0.000 1    0.00    0.00   -131.40    -28.79    132.42     35.01 0 0 0 0
     50     210  0.003529  0.120000   0.00000    100.00    100.00    100.00 1.00000    0.000 1    0.00    0.00    -26.57    -16.29     26.61     17.55 0 0 0 0
     51      68  0.004060  0.037344   0.01192    283.00    283.00    283.00 1.00000    0.000 1    0.00    0.00    -84.44     39.85     84.81    -37.59 0 0 0 0
     51      72  0.000709  0.007194   0.00234    304.04    304.04    304.04 1.00000    0.000 1    0.00    0.00    -46.52    -85.42     46.59     85.89 0 0 0 0
    183      52  0.002047  0.021637   0.20301    707.51    707.51    707.51 1.00000    0.000 1    0.00    0.00   -462.25    -68.65    466.76     95.74 0 0 0 0
    206      52  0.000643  0.006662   0.06506    707.51    707.51    707.51 1.00000    0.000 1    0.00    0.00   -429.46    -74.41    430.64     80.01 0 0 0 0
     53      57  0.006894  0.059124   0.01683    261.01    261.01    261.01 1.00000    0.000 1    0.00    0.00    119.20     26.62   -118.09    -18.62 0 0 0 0
     53      73  0.003976  0.033438   0.00991    261.01    261.01    261.01 1.00000    0.000 1    0.00    0.00     -1.87    -58.03      2.01     58.29 0 0 0 0
     53     211  0.000369  0.018462   0.00000    650.00    650.00    650.00 1.00000    0.000 1    0.00    0.00   -367.18    -45.97    367.72     73.18 0 0 0 0
     55      61  0.034539  0.120369   0.21762    229.46    229.46    229.46 1.00000    0.000 1    0.00    0.00    136.84    -27.02   -130.24     28.67 0 0 0 0
    208      55  0.006202  0.018912   0.03169    206.75    206.75    206.75 1.00000    0.000 1    0.00    0.00    117.14     16.80   -116.28    -17.36 0 0 0 0
     55     212  0.001261  0.046667   0.00000    150.00    150.00    150.00 1.00000    0.000 1    0.00    0.00    -59.85     -8.23     59.90      9.94 0 0 0 0
    185      56  0.000908  0.009601   0.09009    707.51    707.51    707.51 1.00000    0.000 1    0.00    0.00    214.04   -204.33   -213.26    203.42 0 0 0 0
    191      56  0.000301  0.008151   0.12418   1246.50   1246.50   1246.50 1.00000    0.000 1    0.00    0.00   -756.87   -123.85    758.62    158.70 0 0 0 0
     57      60  0.018675  0.042258   0.01054    107.32    107.32    107.32 1.00000    0.000 1    0.00    0.00     21.84     -4.56    -21.73      3.86 0 0 0 0
     58      62  0.002141  0.014851   0.13060    530.03    530.03    530.03 1.00000    0.000 1    0.00    0.00    162.61     47.93   -161.96    -55.92 0 0 0 0
     58      66  0.001447  0.010038   0.08828    530.03    530.03    530.03 1.00000    0.000 1    0.00    0.00    -14.44    -66.76     14.50     58.58 0 0 0 0
    185      58  0.002185  0.015152   0.13324    530.03    530.03    530.03 1.00000    0.000 1    0.00    0.00    356.63     51.82   -353.78    -45.10 0 0 0 0
    191      59  0.000938  0.006385   0.05837    530.03    530.03    530.03 1.00000    0.000 1    0.00    0.00    294.15     70.84   -293.29    -70.84 0 0 0 0
     59     213  0.000907  0.006172   0.05642    530.03    530.03    530.03 1.00000    0.000 1    0.00    0.00    166.16     30.76   -165.90    -34.55 0 0 0 0
     60      63  0.017610  0.040671   0.00973    107.32    107.32    107.32 1.00000    0.000 1    0.00    0.00      9.88     -4.92     -9.86      4.12 0 0 0 0
     60      64  0.005655  0.040347   0.01235    237.35    237.35    237.35 1.00000    0.000 1    0.00    0.00   -133.43     -0.89    134.58      7.94 0 0 0 0
     61     143  0.002057  0.016137   0.03143    395.58    395.58    395.58 1.00000    0.000 1    0.00    0.00     79.55    -60.36    -79.35     58.92 0 0 0 0
    192      61  0.004667  0.025655   0.04713    312.32    312.32    312.32 1.00000    0.000 1    0.00    0.00   -206.19     35.83    208.32    -28.70 0 0 0 0
     61     213  0.000519  0.023333   0.00000    300.00    300.00    300.00 1.00000    0.000 1    0.00    0.00   -165.75    -27.74    165.90     34.55 0 0 0 0
     63      75  0.005417  0.046454   0.01323    261.01    261.01    261.01 1.00000    0.000 1    0.00    0.00   -141.51      1.55    142.74      7.83 0 0 0 0
     64     214  0.000336  0.017143   0.00000    700.00    700.00    700.00 1.00000    0.000 1    0.00    0.00   -397.72    -88.50    398.34    120.12 0 0 0 0
     66      71  0.001271  0.008811   0.07749    530.03    530.03    530.03 1.00000    0.000 1    0.00    0.00   -139.06   -103.68    139.44     98.63 0 0 0 0
     67      68  0.002882  0.026509   0.00846    283.00    283.00    283.00 1.00000    0.000 1    0.00    0.00   -147.96    -43.35    148.71     49.49 0 0 0 0
     68     215  0.000336  0.017143   0.00000    700.00    700.00    700.00 1.00000    0.000 1    0.00    0.00   -410.94    -71.33    411.56    102.98 0 0 0 0
    189      69  0.001131  0.007735   0.06999    530.03    530.03    530.03 1.00000    0.000 1    0.00    0.00    -87.56    -96.48     87.74     90.48 0 0 0 0
     69     247  0.002929  0.020317   0.17866    530.03    530.03    530.03 1.00000    0.000 1    0.00    0.00    332.84    124.79   -329.21   -117.62 0 0 0 0
     71      76  0.001422  0.009863   0.08674    530.03    530.03    530.03 1.00000    0.000 1    0.00    0.00   -248.46   -138.36    249.59    137.35 0 0 0 0
     72      73  0.000275  0.004586   0.00284    424.03    424.03    424.03 1.00000    0.000 1    0.00    0.00    120.06     96.65   -119.99    -95.81 0 0 0 0
    182      74  0.000498  0.003455   0.03038    530.03    530.03    530.03 1.00000    0.000 1    0.00    0.00     -4.18     42.49      4.19    -45.30 0 0 0 0
    210      74  0.001292  0.011415   0.10343    623.25    623.25    623.25 1.00000    0.000 1    0.00    0.00    372.25     67.76   -370.34    -60.75 0 0 0 0
     74     216  0.000640  0.004357   0.03984    530.03    530.03    530.03 1.00000    0.000 1    0.00    0.00    237.15     66.69   -236.73    -67.63 0 0 0 0
     75     216  0.000638  0.030000   0.00000    400.00    400.00    400.00 1.00000    0.000 1    0.00    0.00   -236.32    -48.24    236.73     67.63 0 0 0 0
    190      76  0.001435  0.009955   0.08755    530.03    530.03    530.03 1.00000    0.000 1    0.00    0.00    155.97   -173.10   -155.22    169.37 0 0 0 0
     76     238  0.003386  0.047034   0.46520    868.25    868.25    868.25 1.00000    0.000 1    0.00    0.00    600.36    148.88   -587.62    -17.27 0 0 0 0
     77      84  0.006198  0.069744   0.01841    304.04    304.04    304.04 1.00000    0.000 1    0.00    0.00    -81.86    -37.72     82.38     41.63 0 0 0 0
     77      89  0.016077  0.099621   0.02821    212.01    212.01    212.01 1.00000    0.000 1    0.00    0.00    101.65     12.69    -99.92     -4.61 0 0 0 0
     77     217  0.005926  0.160000   0.00000     50.00     50.00     50.00 1.00000    0.000 1    0.00    0.00    -20.44      0.80     20.46     -0.11 0 0 0 0
     77     218  0.003529  0.120000   0.00000    100.00    100.00    100.00 1.00000    0.000 1    0.00    0.00    -27.84    -19.77     27.88     21.20 0 0 0 0
     78      79  0.014099  0.097781   0.85988    511.35    511.35    511.35 1.00000    0.000 1    0.00    0.00     46.39    -56.26    -46.08    -31.55 0 0 0 0
     78     167  0.005724  0.038942   0.35603    530.03    530.03    530.03 1.00000    0.000 1    0.00    0.00    114.76    -26.42   -114.03     -5.58 0 0 0 0
     79      87  0.008106  0.052075   0.53493    530.03    530.03    530.03 1.00000    0.000 1    0.00    0.00   -123.16    -14.28    124.35    -34.64 0 0 0 0
     80      81  0.005975  0.042908   0.35164    530.03    530.03    530.03 1.00000    0.000 1    0.00    0.00    156.68    -25.09   -155.27     -1.21 0 0 0 0
     80      87  0.003558  0.071801   1.18166    696.37    696.37    696.37 1.00000    0.000 1    0.00    0.00    285.65    -62.17   -282.86     -5.71 0 0 0 0
     81      82  0.007764  0.053845   0.47351    530.03    530.03    530.03 1.00000    0.000 1    0.00    0.00      9.11    -33.55     -9.10    -15.42 0 0 0 0
     82      83  0.007662  0.053138   0.46730    530.03    530.03    530.03 1.00000    0.000 1    0.00    0.00    128.40    -33.58   -127.18     -6.46 0 0 0 0
     83     219  0.005009  0.034736   0.30546    530.03    530.03    530.03 1.00000    0.000 1    0.00    0.00     19.74    -24.53    -19.71     -7.00 0 0 0 0
     84     219  0.000224  0.011429   0.00000   1050.00   1050.00   1050.00 1.00000    0.000 1    0.00    0.00    176.90      3.07   -176.84      0.37 0 0 0 0
     85     154  0.017306  0.084819   0.15179    289.22    289.22    289.22 1.00000    0.000 1    0.00    0.00    121.31     -8.63   -118.59      7.96 0 0 0 0
    217      85  0.004299  0.043533   0.08806    471.67    471.67    471.67 1.00000    0.000 1    0.00    0.00    214.71     30.50   -212.62    -17.81 0 0 0 0
     86      88  0.044131  0.145633   0.03817    137.68    137.68    137.68 1.00000    0.000 1    0.00    0.00    -76.83     -1.39     79.61      6.86 0 0 0 0
     86     169  0.025279  0.129580   0.03558    187.39    187.39    187.39 1.00000    0.000 1    0.00    0.00     44.89    -15.04    -44.30     14.72 0 0 0 0
     86     220  0.000744  0.032000   0.00000    250.00    250.00    250.00 1.00000    0.000 1    0.00    0.00   -108.22    -17.74    108.32     21.86 0 0 0 0
...